/*--------------------------------*- C++ -*----------------------------------*\
| =========                 |                                                 |
| \\      /  F ield         | OpenFOAM: The Open Source CFD Toolbox           |
|  \\    /   O peration     | Version:  v2106                                 |
|   \\  /    A nd           | Website:  www.openfoam.com                      |
|    \\/     M anipulation  |                                                 |
\*---------------------------------------------------------------------------*/
FoamFile
{
    version     2.0;
    format      ascii;
    class       dictionary;
    object      blockMeshDict;
}
// * * * * * * * * * * * * * * * * * * * * * * * * * * * * * * * * * * * * * //

scale   1;

vertices
(
    (-60 -50 -50)
    (100 -50 -50)
    (100 0 -50)
    (-60  0 -50)
    (-60 -50 50.0)
    (100 -50 50.0)
    (100  0 50.0)
    (-60  0 50.0)
);

blocks
(
    hex (0 1 2 3 4 5 6 7) (108 45 54) simpleGrading (2 1 2)
);

edges
(
);

boundary
(
    top
    {
        type patch;
        faces
        (
            (4 5 6 7)
        );
    }
    ground
    {
        type patch;
        faces
        (
            (0 3 2 1)
        );
    }
    inlet
    {
        type patch;
        faces
        (
            (0 4 7 3)
        );
    }
    outlet
    {
        type patch;
        faces
        (
            (1 2 6 5)
        );
    }
    sides
    {
        type symmetry;
        faces
        (
            (3 7 6 2)
            (0 1 5 4)
        );
    }
);


// ************************************************************************* //